<?xml version="1.0" encoding="UTF-8"?>
<routes>
    <vType id="car" accel="2.6" decel="4.5" sigma="0.5"
           length="4.5" maxSpeed="13.89" speedFactor="1.0"/>

    <route id="route_we" edges="road_w2c road_c2e"/>

    <!-- Agents triés par temps de départ (obligatoire SUMO) -->
    <!-- 300 s de simulation, départ toutes les ~5-8 s pour plus de collisions -->
    <vehicle id="v0"  type="car" route="route_we" depart="0.0"   departPos="random" departSpeed="max"/>
    <person  id="p0"  depart="2.0">  <walk edges="ped_s2n" speed="1.2"/> </person>
    <vehicle id="v1"  type="car" route="route_we" depart="5.0"   departPos="random" departSpeed="max"/>
    <person  id="p1"  depart="8.0">  <walk edges="ped_s2n" speed="1.0"/> </person>
    <vehicle id="v2"  type="car" route="route_we" depart="10.0"  departPos="random" departSpeed="max"/>
    <vehicle id="v3"  type="car" route="route_we" depart="14.0"  departPos="random" departSpeed="max"/>
    <person  id="p2"  depart="16.0"> <walk edges="ped_s2n" speed="1.4"/> </person>
    <vehicle id="v4"  type="car" route="route_we" depart="19.0"  departPos="random" departSpeed="max"/>
    <person  id="p3"  depart="22.0"> <walk edges="ped_s2n" speed="0.9"/> </person>
    <vehicle id="v5"  type="car" route="route_we" depart="24.0"  departPos="random" departSpeed="max"/>
    <vehicle id="v6"  type="car" route="route_we" depart="28.0"  departPos="random" departSpeed="max"/>
    <person  id="p4"  depart="30.0"> <walk edges="ped_s2n" speed="1.3"/> </person>
    <vehicle id="v7"  type="car" route="route_we" depart="33.0"  departPos="random" departSpeed="max"/>
    <vehicle id="v8"  type="car" route="route_we" depart="37.0"  departPos="random" departSpeed="max"/>
    <person  id="p5"  depart="39.0"> <walk edges="ped_s2n" speed="1.1"/> </person>
    <vehicle id="v9"  type="car" route="route_we" depart="42.0"  departPos="random" departSpeed="max"/>
    <person  id="p6"  depart="44.0"> <walk edges="ped_s2n" speed="1.5"/> </person>
    <vehicle id="v10" type="car" route="route_we" depart="47.0"  departPos="random" departSpeed="max"/>
    <vehicle id="v11" type="car" route="route_we" depart="51.0"  departPos="random" departSpeed="max"/>
    <person  id="p7"  depart="53.0"> <walk edges="ped_s2n" speed="1.0"/> </person>
    <vehicle id="v12" type="car" route="route_we" depart="56.0"  departPos="random" departSpeed="max"/>
    <person  id="p8"  depart="59.0"> <walk edges="ped_s2n" speed="1.2"/> </person>
    <vehicle id="v13" type="car" route="route_we" depart="62.0"  departPos="random" departSpeed="max"/>
    <vehicle id="v14" type="car" route="route_we" depart="66.0"  departPos="random" departSpeed="max"/>
    <person  id="p9"  depart="68.0"> <walk edges="ped_s2n" speed="0.8"/> </person>
    <vehicle id="v15" type="car" route="route_we" depart="72.0"  departPos="random" departSpeed="max"/>
    <person  id="p10" depart="74.0"> <walk edges="ped_s2n" speed="1.3"/> </person>
    <vehicle id="v16" type="car" route="route_we" depart="77.0"  departPos="random" departSpeed="max"/>
    <vehicle id="v17" type="car" route="route_we" depart="81.0"  departPos="random" departSpeed="max"/>
    <person  id="p11" depart="83.0"> <walk edges="ped_s2n" speed="1.1"/> </person>
    <vehicle id="v18" type="car" route="route_we" depart="86.0"  departPos="random" departSpeed="max"/>
    <person  id="p12" depart="89.0"> <walk edges="ped_s2n" speed="1.4"/> </person>
    <vehicle id="v19" type="car" route="route_we" depart="92.0"  departPos="random" departSpeed="max"/>
    <vehicle id="v20" type="car" route="route_we" depart="96.0"  departPos="random" departSpeed="max"/>
    <person  id="p13" depart="98.0"> <walk edges="ped_s2n" speed="1.0"/> </person>
    <vehicle id="v21" type="car" route="route_we" depart="101.0" departPos="random" departSpeed="max"/>
    <person  id="p14" depart="104.0"><walk edges="ped_s2n" speed="1.2"/> </person>
    <vehicle id="v22" type="car" route="route_we" depart="107.0" departPos="random" departSpeed="max"/>
    <vehicle id="v23" type="car" route="route_we" depart="111.0" departPos="random" departSpeed="max"/>
    <person  id="p15" depart="113.0"><walk edges="ped_s2n" speed="0.9"/> </person>
    <vehicle id="v24" type="car" route="route_we" depart="116.0" departPos="random" departSpeed="max"/>
    <person  id="p16" depart="119.0"><walk edges="ped_s2n" speed="1.5"/> </person>
    <vehicle id="v25" type="car" route="route_we" depart="122.0" departPos="random" departSpeed="max"/>
    <vehicle id="v26" type="car" route="route_we" depart="126.0" departPos="random" departSpeed="max"/>
    <person  id="p17" depart="128.0"><walk edges="ped_s2n" speed="1.1"/> </person>
    <vehicle id="v27" type="car" route="route_we" depart="131.0" departPos="random" departSpeed="max"/>
    <person  id="p18" depart="134.0"><walk edges="ped_s2n" speed="1.3"/> </person>
    <vehicle id="v28" type="car" route="route_we" depart="137.0" departPos="random" departSpeed="max"/>
    <vehicle id="v29" type="car" route="route_we" depart="141.0" departPos="random" departSpeed="max"/>
    <person  id="p19" depart="143.0"><walk edges="ped_s2n" speed="1.0"/> </person>
    <vehicle id="v30" type="car" route="route_we" depart="146.0" departPos="random" departSpeed="max"/>
    <person  id="p20" depart="149.0"><walk edges="ped_s2n" speed="1.4"/> </person>
    <vehicle id="v31" type="car" route="route_we" depart="152.0" departPos="random" departSpeed="max"/>
    <vehicle id="v32" type="car" route="route_we" depart="156.0" departPos="random" departSpeed="max"/>
    <person  id="p21" depart="158.0"><walk edges="ped_s2n" speed="0.8"/> </person>
    <vehicle id="v33" type="car" route="route_we" depart="161.0" departPos="random" departSpeed="max"/>
    <person  id="p22" depart="164.0"><walk edges="ped_s2n" speed="1.2"/> </person>
    <vehicle id="v34" type="car" route="route_we" depart="167.0" departPos="random" departSpeed="max"/>
    <vehicle id="v35" type="car" route="route_we" depart="171.0" departPos="random" departSpeed="max"/>
    <person  id="p23" depart="173.0"><walk edges="ped_s2n" speed="1.1"/> </person>
    <vehicle id="v36" type="car" route="route_we" depart="176.0" departPos="random" departSpeed="max"/>
    <person  id="p24" depart="179.0"><walk edges="ped_s2n" speed="1.5"/> </person>
    <vehicle id="v37" type="car" route="route_we" depart="182.0" departPos="random" departSpeed="max"/>
    <vehicle id="v38" type="car" route="route_we" depart="186.0" departPos="random" departSpeed="max"/>
    <person  id="p25" depart="188.0"><walk edges="ped_s2n" speed="1.0"/> </person>
    <vehicle id="v39" type="car" route="route_we" depart="191.0" departPos="random" departSpeed="max"/>
    <person  id="p26" depart="194.0"><walk edges="ped_s2n" speed="1.3"/> </person>
    <vehicle id="v40" type="car" route="route_we" depart="197.0" departPos="random" departSpeed="max"/>
    <vehicle id="v41" type="car" route="route_we" depart="201.0" departPos="random" departSpeed="max"/>
    <person  id="p27" depart="203.0"><walk edges="ped_s2n" speed="0.9"/> </person>
    <vehicle id="v42" type="car" route="route_we" depart="206.0" departPos="random" departSpeed="max"/>
    <person  id="p28" depart="209.0"><walk edges="ped_s2n" speed="1.2"/> </person>
    <vehicle id="v43" type="car" route="route_we" depart="212.0" departPos="random" departSpeed="max"/>
    <vehicle id="v44" type="car" route="route_we" depart="216.0" departPos="random" departSpeed="max"/>
    <person  id="p29" depart="218.0"><walk edges="ped_s2n" speed="1.4"/> </person>
    <vehicle id="v45" type="car" route="route_we" depart="221.0" departPos="random" departSpeed="max"/>
    <person  id="p30" depart="224.0"><walk edges="ped_s2n" speed="1.1"/> </person>
    <vehicle id="v46" type="car" route="route_we" depart="227.0" departPos="random" departSpeed="max"/>
    <vehicle id="v47" type="car" route="route_we" depart="231.0" departPos="random" departSpeed="max"/>
    <person  id="p31" depart="233.0"><walk edges="ped_s2n" speed="1.0"/> </person>
    <vehicle id="v48" type="car" route="route_we" depart="236.0" departPos="random" departSpeed="max"/>
    <person  id="p32" depart="239.0"><walk edges="ped_s2n" speed="1.5"/> </person>
    <vehicle id="v49" type="car" route="route_we" depart="242.0" departPos="random" departSpeed="max"/>
    <vehicle id="v50" type="car" route="route_we" depart="246.0" departPos="random" departSpeed="max"/>
    <person  id="p33" depart="248.0"><walk edges="ped_s2n" speed="1.2"/> </person>
    <vehicle id="v51" type="car" route="route_we" depart="251.0" departPos="random" departSpeed="max"/>
    <person  id="p34" depart="254.0"><walk edges="ped_s2n" speed="0.8"/> </person>
    <vehicle id="v52" type="car" route="route_we" depart="257.0" departPos="random" departSpeed="max"/>
    <vehicle id="v53" type="car" route="route_we" depart="261.0" departPos="random" departSpeed="max"/>
    <person  id="p35" depart="263.0"><walk edges="ped_s2n" speed="1.3"/> </person>
    <vehicle id="v54" type="car" route="route_we" depart="266.0" departPos="random" departSpeed="max"/>
    <person  id="p36" depart="269.0"><walk edges="ped_s2n" speed="1.1"/> </person>
    <vehicle id="v55" type="car" route="route_we" depart="272.0" departPos="random" departSpeed="max"/>
    <vehicle id="v56" type="car" route="route_we" depart="276.0" departPos="random" departSpeed="max"/>
    <person  id="p37" depart="278.0"><walk edges="ped_s2n" speed="1.0"/> </person>
    <vehicle id="v57" type="car" route="route_we" depart="281.0" departPos="random" departSpeed="max"/>
    <person  id="p38" depart="284.0"><walk edges="ped_s2n" speed="1.4"/> </person>
    <vehicle id="v58" type="car" route="route_we" depart="287.0" departPos="random" departSpeed="max"/>
    <vehicle id="v59" type="car" route="route_we" depart="291.0" departPos="random" departSpeed="max"/>
    <person  id="p39" depart="293.0"><walk edges="ped_s2n" speed="1.2"/> </person>
</routes>
